*Heading
** Job name: d Model name: Model-1
** Generated by: Abaqus/CAE 2023.HF2
*Preprint, echo=NO, model=NO, history=NO, contact=NO
**
** PARTS
**
*Part, name=Lifter
*End Part
**  
**
** ASSEMBLY
**
*Assembly, name=Assembly
**  
*Instance, name=Lifter-1, part=Lifter
*Node
      1,  0.804305971, 0.0709715337
      2,  0.811807871, 0.0528603271
      3,  0.829289317,  0.029289322
      4,  0.852860332, 0.0118078738
      5,   0.87097156, 0.0043059662
      6,  0.800000012,  0.100000001
      7,  0.899999976,           0.
      8,  0.995694041, 0.0709715337
      9,  0.988192141, 0.0528603271
     10,  0.970710695,  0.029289322
     11,   0.94713968, 0.0118078738
     12,  0.929028451, 0.0043059662
     13,           1.,  0.100000001
     14,           1.,  0.379999995
     15,           1.,  0.360000014
     16,           1.,  0.340000004
     17,           1.,  0.310000002
     18,           1.,  0.289999992
     19,           1.,  0.270000011
     20,           1.,         0.25
** ... 5673 like lines cut
*Element, type=CPS3
  1, 5635, 4876, 4228
  2, 5476,  317, 3823
  3, 3065, 2675,  333
  4, 5560, 3934,  520
  5, 3307, 3160,  606
  6, 4204,  945, 4027
  7, 5498, 3985,  594
  8, 4551, 4509,  860
  9, 4773, 4768, 4734
 10, 5011, 2820,  199
 11, 2743, 2425, 2659
 12, 3683, 3348, 3492
 13, 4162, 3745, 3676
 14,  453, 4549, 4804
 15, 5316, 4339, 5250
 16, 5523, 3705, 3371
 17, 2955, 2181, 2265
 18, 3921,  538, 3897
 19, 3829,  585, 3686
 20, 5021, 3374, 2554
** ... 152 like lines cut
*Element, type=CPS4R
 173, 1128, 1129, 1448, 1802
 174,  201,    4, 1130, 1443
 175, 1443, 1130,    5, 1408
 176, 1863, 2054,  195, 1950
 177, 2743, 3136, 2278,  196
 178,  187, 3290, 3418, 3190
 179, 5038, 3076,  175, 2995
 180, 2836, 2686, 2953,  211
 181, 2685, 3123, 4862, 5134
 182, 2994, 2691, 2894, 4245
 183, 2704, 3302, 3150,  239
 184, 2867, 2714, 3301,  247
 185, 3713, 2737, 2978,  256
 186, 3027,  257, 3713, 3333
 187, 5176, 3637, 3090, 5177
 188, 2864, 2733, 2976,  283
 189, 3091, 2864,  283, 5190
 190, 5189, 3138, 3314, 5327
 191,  310, 3763, 3483, 3271
 192, 3271, 3470, 3112,  318
** ... 5372 like lines cut
*Nset, nset=Set-1, generate
    1,  5693,     1
*Elset, elset=Set-1, generate
    1,  5564,     1
** Section: Section-1
*Solid Section, elset=Set-1, material=Material-1
,
*End Instance
**  
*Nset, nset=External, instance=Lifter-1
   13,   14,   15,   16,   17,   18,   19,   20,   21,   22,   23,   24,   25,   26,   27,   28
   29,   30,   31,   32,   33,   34,   35,   36,   37,   38,   39,   40,   41,   42,   43,   44
   45,   46,   47,   48,   49,   50,   51,   52,   68,   69,   70,   71,   72,   73,   74,   75
   76,   77,   78,   79,   80,   81,   82,   83,   84,   85,   86,   87,   88,   89,   90,   91
   92,   93,   94,   95,   96,   97,   98,   99,  100,  101,  102,  103,  104,  105,  106,  107
 1143, 1144, 1145, 1146, 1147, 1148, 1149, 1150, 1151, 1152, 1153, 1154, 1155, 1156, 1157, 1158
 1159, 1160, 1161, 1162, 1163, 1164, 1165, 1166, 1167, 1168, 1169, 1170, 1171, 1172, 1173, 1174
 1175, 1176, 1177, 1178, 1179, 1180, 1181, 1182, 1183, 1184, 1185, 1186, 1187, 1188, 1189, 1190
 1191, 1192, 1193, 1194, 1195, 1196, 1197, 1198, 1199, 1200, 1201, 1202, 1203, 1230, 1231, 1232
 1233, 1234, 1235, 1236, 1237, 1238, 1239, 1240, 1241, 1242, 1243, 1244, 1245, 1246, 1247, 1248
 1249, 1250, 1251, 1252, 1253, 1254, 1255, 1256, 1257, 1258, 1259, 1260, 1261, 1262, 1263, 1264
 1265, 1266, 1267, 1268, 1269, 1270, 1271, 1272, 1273, 1274, 1275, 1276, 1277, 1278, 1279, 1280
 1281, 1282, 1283, 1284, 1285, 1286, 1287, 1288, 1289, 1290
*Elset, elset=External, instance=Lifter-1
  203,  205,  280,  292,  293,  301,  304,  315,  319,  322,  324,  326,  338,  340,  346,  352
  353,  356,  365,  370,  373,  375,  377,  379,  380,  381,  383,  384,  385,  386,  422,  434
  436,  438,  463,  465,  476,  477,  497,  507,  559,  560,  580,  581,  582,  589,  590,  591
  593,  594,  596,  597,  599,  600,  601,  603,  610,  612,  615,  616,  628,  629,  630,  688
  697,  698,  706,  707,  710,  715,  716,  717,  730,  731,  733,  741,  748,  753,  754,  758
  763,  768,  774,  780, 1095, 1328, 1329, 1330, 1426, 1427, 1482, 1483, 1484, 1485, 1494, 1584
 1657, 1666, 1693, 1700, 1718, 1837, 1906, 1907, 2004, 2084, 2085, 2086, 2087, 2088, 2089, 2090
 2092, 2096, 2097, 2098, 2099, 2100, 2101, 2103, 2104, 2105, 2106, 2107, 2108, 2109, 2110, 2111
 2112, 2113, 2114, 2115, 2116, 2117, 2118, 2119, 2120, 2121, 2144, 2145, 2146, 2147, 2148, 2149
 2150, 2151, 2152, 2153, 2154, 2155, 2156, 2157, 2158, 2159, 2160, 2161, 2162, 2163, 2164, 2165
 2167, 2171, 2172, 2173, 2231, 2233, 2234, 2236, 2240, 2244, 2245, 2296, 2301, 2309, 2311, 2313
 2325, 2326, 2327, 2332, 2335, 2337, 2338, 2340, 2342, 2348, 2359, 2362, 2364, 2377, 2395, 2412
 2417, 2420, 2422, 2426, 2427, 2430, 2437, 2455
*Nset, nset=Internal, instance=Lifter-1
    6,  119,  120,  121,  122,  123,  124,  125,  126,  127,  128,  129,  130,  131,  132,  133
  134,  135,  136,  137,  138,  139,  140,  141,  142,  143,  144,  145,  146,  147,  148,  149
  150,  151,  152,  153,  154,  155,  156,  157,  158,  159,  160,  161,  162,  163,  164, 1311
 1312, 1313, 1314, 1315, 1316, 1317, 1318, 1319, 1320, 1321, 1322, 1323, 1324, 1325, 1326, 1327
 1328, 1329, 1330, 1331, 1332, 1333, 1334, 1335, 1336, 1337, 1338, 1339, 1340, 1341, 1342, 1343
 1344, 1345, 1346, 1347, 1348, 1349, 1350, 1351, 1352, 1353, 1354, 1355, 1356, 1357, 1358, 1359
 1360, 1361, 1362, 1363, 1364, 1365, 1366, 1367, 1368, 1369, 1370, 1371, 1372, 1373, 1374, 1375
 1376, 1377, 1378, 1379, 1380, 1381, 1382, 1383, 1384, 1385, 1386
*Elset, elset=Internal, instance=Lifter-1
  241,  247,  248,  249,  250,  251,  252,  397,  398,  399,  400,  432,  433,  549,  550,  551
  568,  570,  571,  869,  871,  874,  875,  877,  878,  880,  882,  883,  886,  896,  902,  903
  905,  906,  907,  928,  929,  971,  991,  992, 1008, 1024, 1038, 1040, 1049, 1052, 1053, 1054
 1065, 1066, 1070, 1071, 1078, 1079, 1081, 1085, 1087, 1088, 1092, 1093, 1247, 1270, 1272, 1396
 1425, 1942, 1959, 1976, 2011, 2070, 2189, 2190, 2191, 2192, 2193, 2194, 2195, 2196, 2197, 2198
 2199, 2200, 2201, 2202, 2204, 2206, 2208, 2211, 2214, 2215, 2216, 2217, 2218, 2219, 2220, 2222
 2223, 2224, 2225, 2226, 2228, 2229, 2303, 2366, 2367, 2369, 2372, 2374, 2376, 2402, 2404, 2459
 2460, 2461, 2466, 2468, 2472, 2484, 2981, 2990, 4135, 5319
*Nset, nset=Set-1, instance=Lifter-1
  107,  108,  109,  110,  111,  112,  113,  114,  115,  116,  117,  118,  119, 1291, 1292, 1293
 1294, 1295, 1296, 1297, 1298, 1299, 1300, 1301, 1302, 1303, 1304, 1305, 1306, 1307, 1308, 1309
 1310,
*Elset, elset=Set-1, instance=Lifter-1
  657,  659,  689,  690,  700,  788,  790,  816,  817,  818,  842,  868, 2056, 2060, 2174, 2175
 2176, 2177, 2180, 2181, 2182, 2183, 2184, 2185, 2186, 2187, 2188, 2262, 2274, 2275, 2279, 2571
*Nset, nset=Set-2, instance=Lifter-1
    1,    2,    3,    4,    5,    6,    7,    8,    9,   10,   11,   12,   13, 1123, 1124, 1125
 1126, 1127, 1128, 1129, 1130, 1131, 1132, 1133, 1134, 1135, 1136, 1137, 1138, 1139, 1140, 1141
 1142,
*Elset, elset=Set-2, instance=Lifter-1
  173,  174,  175,  237,  239,  240,  253, 1098, 1105, 1107, 1112, 1154, 1166, 1167, 2071, 2072
 2073, 2074, 2075, 2076, 2077, 2078, 2079, 2080, 2081, 2082, 2083, 2246, 2254, 2572, 2573, 3486
*Nset, nset=Set-3, instance=Lifter-1
   52,   53,   54,   55,   56,   57,   58,   59,   60,   61,   62,   63,   64,   65,   66,   67
   68, 1204, 1205, 1206, 1207, 1208, 1209, 1210, 1211, 1212, 1213, 1214, 1215, 1216, 1217, 1218
 1219, 1220, 1221, 1222, 1223, 1224, 1225, 1226, 1227, 1228, 1229
*Elset, elset=Set-3, instance=Lifter-1
  449,  475,  486,  494,  504,  514,  519,  520,  521,  522,  523,  525,  526,  527, 1775, 1838
 1854, 1861, 1862, 1877, 2068, 2122, 2123, 2124, 2125, 2126, 2127, 2129, 2130, 2131, 2132, 2134
 2135, 2136, 2137, 2138, 2140, 2249, 2252, 2266, 2283, 2288
*Elset, elset=_Surf-1_S2, internal, instance=Lifter-1
  486, 2249
*Elset, elset=_Surf-1_S4, internal, instance=Lifter-1
  494,  504,  514, 2127, 2129, 2130, 2131, 2132
*Surface, type=ELEMENT, name=Surf-1
_Surf-1_S2, S2
_Surf-1_S4, S4
*End Assembly
** 
** MATERIALS
** 
*Material, name=Material-1
*Elastic
 1.333, 0.333
** ----------------------------------------------------------------
** 
** STEP: Step-1
** 
*Step, name=Step-1, nlgeom=NO
*Static
1., 1., 1e-05, 1.
** 
** BOUNDARY CONDITIONS
** 
** Name: BC-1 Type: Displacement/Rotation
*Boundary
Set-1, 1, 1
Set-1, 2, 2
** Name: BC-2 Type: Displacement/Rotation
*Boundary
Set-2, 1, 1
Set-2, 2, 2
** Name: BC-3 Type: Displacement/Rotation
*Boundary
Set-3, 1, 1, 3.
Set-3, 2, 2, 3.
** 
** OUTPUT REQUESTS
** 
*Restart, write, frequency=0
** 
** FIELD OUTPUT: F-Output-1
** 
*Output, field, variable=PRESELECT
** 
** HISTORY OUTPUT: H-Output-1
** 
*Output, history, variable=PRESELECT
*End Step
